# generated using pymatgen
data_VO2
_symmetry_space_group_name_H-M   'P 1'
_cell_length_a   3.76921861
_cell_length_b   6.54603604
_cell_length_c   6.40298145
_cell_angle_alpha   106.00259240
_cell_angle_beta   107.09884693
_cell_angle_gamma   89.99889485
_symmetry_Int_Tables_number   1
_chemical_formula_structural   VO2
_chemical_formula_sum   'V4 O8'
_cell_volume   144.58344800
_cell_formula_units_Z   4
loop_
 _symmetry_equiv_pos_site_id
 _symmetry_equiv_pos_as_xyz
  1  'x, y, z'
loop_
 _atom_site_type_symbol
 _atom_site_label
 _atom_site_symmetry_multiplicity
 _atom_site_fract_x
 _atom_site_fract_y
 _atom_site_fract_z
 _atom_site_occupancy
  V  V0  1  0.70099585  0.28155217  0.40186700  1
  V  V1  1  0.29900446  0.71844823  0.59813276  1
  V  V2  1  0.59750785  0.70179349  0.19483223  1
  V  V3  1  0.40249207  0.29820629  0.80516758  1
  O  O4  1  0.63709402  0.01183044  0.27394969  1
  O  O5  1  0.36290647  0.98816928  0.72605026  1
  O  O6  1  0.75866315  0.64412771  0.51731881  1
  O  O7  1  0.24133640  0.35587250  0.48268102  1
  O  O8  1  0.55434204  0.36737900  0.10853756  1
  O  O9  1  0.44565777  0.63262085  0.89146227  1
  O  O10  1  0.86254074  0.29203573  0.72517657  1
  O  O11  1  0.13745920  0.70796430  0.27482321  1
